8

C      0.751117    0.085951    0.003858
C     -0.751118   -0.085951   -0.003858
H      1.022222    1.110025   -0.269626
H      1.156924   -0.124037    0.997964
H      1.219830   -0.597043   -0.710879
H     -1.156926    0.124041   -0.997963
H     -1.219829    0.597040    0.710883
H     -1.022221   -1.110027    0.269622
